Version 4
SHEET 1 1236 680
WIRE 352 -64 -176 -64
WIRE 592 -64 352 -64
WIRE 352 0 352 -64
WIRE -176 16 -176 -64
WIRE -96 16 -176 16
WIRE 48 16 -16 16
WIRE 176 16 48 16
WIRE 208 16 176 16
WIRE -176 64 -176 16
WIRE 48 80 48 16
WIRE 176 112 176 16
WIRE 176 112 80 112
WIRE 592 112 592 -64
WIRE 352 128 352 80
WIRE 464 128 352 128
WIRE 560 128 464 128
WIRE 352 144 352 128
WIRE 656 144 624 144
WIRE -176 160 -176 144
WIRE 48 160 48 144
WIRE 560 160 528 160
WIRE 592 192 592 176
WIRE 352 240 352 224
FLAG -176 160 0
FLAG 48 160 0
FLAG 352 240 0
FLAG 592 192 0
FLAG 656 144 OUT
IOPIN 656 144 Out
FLAG 464 128 Vmeas
FLAG -176 -64 Vbat
FLAG 528 160 Vref0
IOPIN 528 160 In
FLAG 208 16 Vref0
IOPIN 208 16 Out
SYMBOL References\\LT1009 48 112 R0
SYMATTR InstName U1
SYMBOL voltage -176 48 R0
WINDOW 123 0 0 Left 2
WINDOW 39 0 0 Left 2
SYMATTR InstName V1
SYMATTR Value {Vbatt}
SYMBOL res 0 0 R90
WINDOW 0 0 56 VBottom 2
WINDOW 3 32 56 VTop 2
SYMATTR InstName R1
SYMATTR Value 2k
SYMBOL res 336 -16 R0
SYMATTR InstName R2
SYMATTR Value 91k
SYMBOL res 336 128 R0
SYMATTR InstName R3
SYMATTR Value 100k
SYMBOL Opamps\\opamp2 592 80 R0
SYMATTR InstName U2
SYMATTR Value LM358
TEXT -186 264 Left 2 !.tran 1m
TEXT -184 296 Left 2 !.step param Vbatt list 4.8 4.9 5.0 5.1 5.2
TEXT -184 328 Left 2 !.include mylib\\LM358.101
